LTspice 24.1.9 for Windows
Circuit: C:\Users\haric\VLSICADResearch\BuckConverter.net
Start Time: Wed May 20 14:38:34 2026
solver = Normal
Maximum thread count: 24
tnom = 27
temp = 27
method = trap
Instance "MP1": Length shorter than recommended for a level 1 MOSFET.
Instance "MP0": Length shorter than recommended for a level 1 MOSFET.
Instance "MN1": Length shorter than recommended for a level 1 MOSFET.
Instance "MN0": Length shorter than recommended for a level 1 MOSFET.
Direct Newton iteration for .op point succeeded.
.step pntsv=2e-06
.step pntsv=4e-06
.step pntsv=8e-06
.step pntsv=1.6e-05
Total elapsed time: 4.538 seconds.

Files loaded:
C:\Users\haric\VLSICADResearch\BuckConverter.net
C:\Users\haric\AppData\Local\LTspice\lib\cmp\standard.mos

